RUNSPEC

DIMENS
30 30 333 /

GRIDOPTS
  YES /

OIL

WATER

SCHEDULE

DRSDT
 0 /


END